@<TRIPOS>MOLECULE
GTP
   44    46     1     0     0
SMALL
bcc


@<TRIPOS>ATOM
      1 PA          26.3430    -1.8090    10.6430 p5       201 GTP       1.600800
      2 PB          29.5110    -1.6740    10.4730 p5       201 GTP       1.653800
      3 PG          31.0600     0.8120    11.6330 p5       201 GTP       1.447900
      4 C5'         25.3810    -0.4820     8.5200 c3       201 GTP       0.204400
      5 O5'         25.4470    -1.7310     9.1810 os       201 GTP      -0.593200
      6 C4'         24.0060    -0.2870     7.8750 c5       201 GTP       0.069100
      7 O4'         23.8220    -1.3250     6.9220 os       201 GTP      -0.416600
      8 C3'         22.8030    -0.4100     8.8180 c5       201 GTP       0.139100
      9 O3'         21.7650     0.4650     8.4070 oh       201 GTP      -0.623800
     10 C2'         22.4360    -1.8920     8.7510 c5       201 GTP       0.132100
     11 O2'         21.0810    -2.2380     8.9430 oh       201 GTP      -0.601800
     12 C1'         22.8070    -2.1980     7.3070 c5       201 GTP       0.231800
     13 N1          21.6880    -6.3750     4.6380 ns       201 GTP      -0.479400
     14 O1A         26.3050    -3.2310    11.1390 o        201 GTP      -0.684500
     15 O1B         29.5130    -2.3240    11.8370 o        201 GTP      -0.903000
     16 O1G         32.4120     0.2420    11.2160 o        201 GTP      -0.949500
     17 C2          21.1160    -5.1190     4.5710 cc       201 GTP       0.492800
     18 N2          20.1100    -4.9730     3.7080 nv       201 GTP      -0.860800
     19 O2A         25.9810    -0.6350    11.5180 o        201 GTP      -0.684500
     20 O2B         30.3000    -2.2140     9.3060 o        201 GTP      -0.903000
     21 O2G         30.9400     2.3110    11.3240 o        201 GTP      -0.949500
     22 N3          21.5170    -4.1300     5.2910 nd       201 GTP      -0.551100
     23 O3A         27.8900    -1.5440     9.9900 os       201 GTP      -0.767800
     24 O3B         29.8920    -0.0240    10.6540 os       201 GTP      -0.797800
     25 O3G         30.7150     0.4680    13.0870 o        201 GTP      -0.949500
     26 C4          22.5450    -4.4580     6.1240 cd       201 GTP      -0.011200
     27 C5          23.1560    -5.6740     6.2560 cc       201 GTP       0.223800
     28 C6          22.7250    -6.7830     5.4330 c        201 GTP       0.619000
     29 O6          23.1870    -7.9180     5.3810 o        201 GTP      -0.732500
     30 N7          24.1160    -5.6420     7.1910 nc       201 GTP      -0.782000
     31 C8          24.0710    -4.4120     7.6420 cd       201 GTP       0.256400
     32 N9          23.1740    -3.6330     7.0080 na       201 GTP      -0.209900
     33 HN1         21.3220    -7.0860     4.0150 hn       201 GTP       0.303500
     34 HC1'        21.9770    -1.9380     6.6480 h2       201 GTP       0.042700
     35 HC2'        23.0740    -2.4770     9.4140 h1       201 GTP       0.047700
     36 HC3'        23.0800    -0.1430     9.8390 h1       201 GTP       0.072700
     37 HC4'        24.0130     0.6740     7.3580 h1       201 GTP       0.060700
     38 HC8         24.6730    -4.0090     8.4410 h5       201 GTP       0.149100
     39 HO2'        20.9320    -2.3920     9.8830 ho       201 GTP       0.428000
     40 HO3'        20.9800     0.2820     8.9380 ho       201 GTP       0.457000
     41 H5'1        26.1510    -0.4510     7.7570 h1       201 GTP       0.044700
     42 H5'2        25.5760     0.3530     9.1890 h1       201 GTP       0.044700
     43 H2_1        19.6180    -4.0920     3.6450 hn       201 GTP       0.365300
     44 H2_2        19.7890    -5.7550     3.1470 hn       201 GTP       0.365300
@<TRIPOS>BOND
     1     1     5 1   
     2     1    14 1   
     3     1    19 1   
     4     1    23 1   
     5     2    15 1   
     6     2    20 1   
     7     2    23 1   
     8     2    24 1   
     9     3    16 1   
    10     3    21 1   
    11     3    24 1   
    12     3    25 1   
    13     4     5 1   
    14     4     6 1   
    15     4    41 1   
    16     4    42 1   
    17     6     7 1   
    18     6     8 1   
    19     6    37 1   
    20     7    12 1   
    21     8     9 1   
    22     8    10 1   
    23     8    36 1   
    24     9    40 1   
    25    10    11 1   
    26    10    12 1   
    27    10    35 1   
    28    11    39 1   
    29    12    32 1   
    30    12    34 1   
    31    13    17 1   
    32    13    28 1   
    33    13    33 1   
    34    17    18 1   
    35    17    22 2   
    36    18    43 1   
    37    18    44 1   
    38    22    26 1   
    39    26    27 2   
    40    26    32 1   
    41    27    28 1   
    42    27    30 1   
    43    28    29 2   
    44    30    31 2   
    45    31    32 1   
    46    31    38 1   
@<TRIPOS>SUBSTRUCTURE
     1 GTP         1 TEMP              0 ****  ****    0 ROOT
