8AZY - prepared_ligand1
                    3D
 Schrodinger Suite 2024-2.
 40 42  0  0  1  0            999 V2000
    6.7232   30.6657   20.1087 P   0  0  0  0  0  0
    6.9382   29.2207   19.6418 O   0  0  0  0  0  0
    5.8322   31.4907   19.1653 O   0  5  0  0  0  0
    6.2541   30.7549   21.5677 O   0  5  0  0  0  0
    8.2838   31.3964   20.0350 O   0  0  0  0  0  0
    8.7999   32.9899   19.7940 P   0  0  0  0  0  0
    8.0990   33.8550   20.8145 O   0  0  0  0  0  0
    8.7953   33.2820   18.3115 O   0  5  0  0  0  0
   10.4368   32.7811   20.2634 O   0  0  0  0  0  0
   10.6987   32.4260   21.6066 C   0  0  0  0  0  0
   12.0633   32.9625   22.0562 C   0  0  1  0  0  0
   13.0591   32.3169   21.2798 O   0  0  0  0  0  0
   12.2988   34.4549   21.8109 C   0  0  1  0  0  0
   13.1191   35.0346   22.8131 O   0  0  0  0  0  0
   12.8990   34.5053   20.4041 C   0  0  1  0  0  0
   13.8025   35.5569   20.1296 O   0  0  0  0  0  0
   13.6638   33.1933   20.3845 C   0  0  2  0  0  0
   13.8565   32.5387   19.0382 N   0  0  0  0  0  0
   12.9297   32.1982   18.1196 C   0  0  0  0  0  0
   13.4348   31.6397   17.0465 N   0  0  0  0  0  0
   14.7581   31.6860   17.2531 C   0  0  0  0  0  0
   15.8306   31.2044   16.4079 C   0  0  0  0  0  0
   15.7554   30.5926   15.3486 O   0  0  0  0  0  0
   17.0314   31.5036   16.9973 N   0  0  0  0  0  0
   17.2490   32.1262   18.2098 C   0  0  0  0  0  0
   18.5208   32.3132   18.5597 N   0  0  0  0  0  0
   16.2900   32.5123   18.9793 N   0  0  0  0  0  0
   15.0559   32.2644   18.4536 C   0  0  0  0  0  0
   10.6981   31.3445   21.6755 H   0  0  0  0  0  0
    9.9307   32.7954   22.2865 H   0  0  0  0  0  0
   12.2123   32.6975   23.1032 H   0  0  0  0  0  0
   11.3528   34.9926   21.8284 H   0  0  0  0  0  0
   13.1772   35.9794   22.6425 H   0  0  0  0  0  0
   12.1131   34.4721   19.6503 H   0  0  0  0  0  0
   13.3031   36.3817   20.1430 H   0  0  0  0  0  0
   14.6567   33.3494   20.8070 H   0  0  0  0  0  0
   11.8808   32.3664   18.3080 H   0  0  0  0  0  0
   17.8468   31.1886   16.4831 H   0  0  0  0  0  0
   18.7503   32.7864   19.4248 H   0  0  0  0  0  0
   19.2736   32.0112   17.9485 H   0  0  0  0  0  0
  1  2  2  0  0  0
  1  3  1  0  0  0
  1  4  1  0  0  0
  1  5  1  0  0  0
  5  6  1  0  0  0
  6  7  2  0  0  0
  6  8  1  0  0  0
  6  9  1  0  0  0
  9 10  1  0  0  0
 10 11  1  0  0  0
 10 29  1  0  0  0
 10 30  1  0  0  0
 11 12  1  0  0  0
 11 13  1  0  0  0
 11 31  1  0  0  0
 12 17  1  0  0  0
 13 14  1  0  0  0
 13 15  1  0  0  0
 13 32  1  0  0  0
 14 33  1  0  0  0
 15 16  1  0  0  0
 15 17  1  0  0  0
 15 34  1  0  0  0
 16 35  1  0  0  0
 17 18  1  0  0  0
 17 36  1  0  0  0
 18 19  1  0  0  0
 18 28  1  0  0  0
 19 20  2  0  0  0
 19 37  1  0  0  0
 20 21  1  0  0  0
 21 22  1  0  0  0
 21 28  2  0  0  0
 22 23  2  0  0  0
 22 24  1  0  0  0
 24 25  1  0  0  0
 24 38  1  0  0  0
 25 26  1  0  0  0
 25 27  2  0  0  0
 26 39  1  0  0  0
 26 40  1  0  0  0
 27 28  1  0  0  0
M  CHG  3   3  -1   4  -1   8  -1
M  END
> <i_m_Source_File_Index>
1

> <i_pdb_PDB_CRYST1_z>
4

> <b_m_subgroup_collapsed>
0

> <b_ppw_created_disulfur>
1

> <b_ppw_prepared>
1

> <r_i_Bend_Energy-S-OPLS>
356.149

> <r_i_Dihedral_Energy-S-OPLS>
376.476

> <r_i_El-14_Energy-S-OPLS>
252.602

> <r_i_Electrostatic_Energy-S-OPLS>
-1570.81

> <r_i_LJ-14_Energy-S-OPLS>
869.218

> <r_i_Max_Derivative-S-OPLS>
2.30703

> <r_i_Potential_Energy-S-OPLS>
-1471.26

> <r_i_RMS_Derivative-S-OPLS>
0.109469

> <r_i_Stretch_Energy-S-OPLS>
77.359

> <r_i_Van_der_Waals_Energy-S-OPLS>
-1891.05

> <r_i_target_temperature>
298

> <r_pdb_PDB_CRYST1_a>
87.158

> <r_pdb_PDB_CRYST1_alpha>
90

> <r_pdb_PDB_CRYST1_b>
40.545

> <r_pdb_PDB_CRYST1_beta>
90

> <r_pdb_PDB_CRYST1_c>
55.943

> <r_pdb_PDB_CRYST1_gamma>
90

> <r_pdb_PDB_EXPDTA_TEMPERATURE>
100

> <r_pdb_PDB_R>
0.164

> <r_pdb_PDB_RESOLUTION>
1.09

> <r_pdb_PDB_Rfree>
0.197

> <r_ppw_preprocess_pH>
7.4

> <s_m_Source_File>
proteinprep_3-out.maegz

> <s_m_Source_Path>
/data/eric.chen/projects/NRAS/SWII_inhibitors/modeling/proteinprep_3

> <s_m_backendhidden_zob_param>
ewogICAiYW5nbGUiIDogWwogICAgICB7CiAgICAgICAgICJmb3JjZV9jb25zdGFudCIgOiA2MCwKICAgICAgICAgImkiIDogMjczNiwKICAgICAgICAgImoiIDogMjUwLAogICAgICAgICAiayIgOiAyNDksCiAgICAgICAgICJyZWZlcmVuY2VfdmFsdWUiIDogMi4yNTU2NjQ5MzkxMzA2MjQ3CiAgICAgIH0sCiAgICAgIHsKICAgICAgICAgImZvcmNlX2NvbnN0YW50IiA6IDAsCiAgICAgICAgICJpIiA6IDI3MzYsCiAgICAgICAgICJqIiA6IDI1MCwKICAgICAgICAgImsiIDogMjU1LAogICAgICAgICAicmVmZXJlbmNlX3ZhbHVlIiA6IDIuMTA1NjAzODQ0NDQ0NTUxNQogICAgICB9LAogICAgICB7CiAgICAgICAgICJmb3JjZV9jb25zdGFudCIgOiA2MCwKICAgICAgICAgImkiIDogMjczNiwKICAgICAgICAgImoiIDogMjY5OCwKICAgICAgICAgImsiIDogMjY5NiwKICAgICAgICAgInJlZmVyZW5jZV92YWx1ZSIgOiAyLjMyMjUzMDY2NjE4MTgzOTkKICAgICAgfSwKICAgICAgewogICAgICAgICAiZm9yY2VfY29uc3RhbnQiIDogNjAsCiAgICAgICAgICJpIiA6IDI1MCwKICAgICAgICAgImoiIDogMjczNiwKICAgICAgICAgImsiIDogMjY5OCwKICAgICAgICAgInJlZmVyZW5jZV92YWx1ZSIgOiAxLjU4NzY5NDk1MTQ5NTI3NzIKICAgICAgfSwKICAgICAgewogICAgICAgICAiZm9yY2VfY29uc3RhbnQiIDogNjAsCiAgICAgICAgICJpIiA6IDI1MCwKICAgICAgICAgImoiIDogMjczNiwKICAgICAgICAgImsiIDogMjkxMywKICAgICAgICAgInJlZmVyZW5jZV92YWx1ZSIgOiAxLjU2MTM1OTY0MTk0Mjk1OTQKICAgICAgfSwKICAgICAgewogICAgICAgICAiZm9yY2VfY29uc3RhbnQiIDogNjAsCiAgICAgICAgICJpIiA6IDI1MCwKICAgICAgICAgImoiIDogMjczNiwKICAgICAgICAgImsiIDogMjk0NiwKICAgICAgICAgInJlZmVyZW5jZV92YWx1ZSIgOiAxLjQ5NzIzMjc0NTA1MzAxOTgKICAgICAgfSwKICAgICAgewogICAgICAgICAiZm9yY2VfY29uc3RhbnQiIDogNjAsCiAgICAgICAgICJpIiA6IDI1MCwKICAgICAgICAgImoiIDogMjczNiwKICAgICAgICAgImsiIDogMzA3NSwKICAgICAgICAgInJlZmVyZW5jZV92YWx1ZSIgOiAxLjU3MjYyNzI1NDgxNTMxMTEKICAgICAgfSwKICAgICAgewogICAgICAgICAiZm9yY2VfY29uc3RhbnQiIDogNjAsCiAgICAgICAgICJpIiA6IDI2OTgsCiAgICAgICAgICJqIiA6IDI3MzYsCiAgICAgICAgICJrIiA6IDI5MTMsCiAgICAgICAgICJyZWZlcmVuY2VfdmFsdWUiIDogMS41NjgzMzM2Mjc2NTQ2MjM2CiAgICAgIH0sCiAgICAgIHsKICAgICAgICAgImZvcmNlX2NvbnN0YW50IiA6IDYwLAogICAgICAgICAiaSIgOiAyNjk4LAogICAgICAgICAiaiIgOiAyNzM2LAogICAgICAgICAiayIgOiAyOTQ2LAogICAgICAgICAicmVmZXJlbmNlX3ZhbHVlIiA6IDEuNjI3MzcwMjQzNTQxNzI5OQogICAgICB9LAogICAgICB7CiAgICAgICAgICJmb3JjZV9jb25zdGFudCIgOiA2MCwKICAgICAgICAgImkiIDogMjY5OCwKICAgICAgICAgImoiIDogMjczNiwKICAgICAgICAgImsiIDogMjk4NSwKICAgICAgICAgInJlZmVyZW5jZV92YWx1ZSIgOiAxLjU3OTIyNTY0NDUxMDIyMDYKICAgICAgfSwKICAgICAgewogICAgICAgICAiZm9yY2VfY29uc3RhbnQiIDogNjAsCiAgICAgICAgICJpIiA6IDI5MTMsCiAgICAgICAgICJqIiA6IDI3MzYsCiAgICAgICAgICJrIiA6IDI5ODUsCiAgICAgICAgICJyZWZlcmVuY2VfdmFsdWUiIDogMS42NTM3ODA2ODIwNzIyMTcKICAgICAgfSwKICAgICAgewogICAgICAgICAiZm9yY2VfY29uc3RhbnQiIDogNjAsCiAgICAgICAgICJpIiA6IDI5MTMsCiAgICAgICAgICJqIiA6IDI3MzYsCiAgICAgICAgICJrIiA6IDMwNzUsCiAgICAgICAgICJyZWZlcmVuY2VfdmFsdWUiIDogMS40OTgzMjU3OTE0MDkzMTUxCiAgICAgIH0sCiAgICAgIHsKICAgICAgICAgImZvcmNlX2NvbnN0YW50IiA6IDYwLAogICAgICAgICAiaSIgOiAyOTQ2LAogICAgICAgICAiaiIgOiAyNzM2LAogICAgICAgICAiayIgOiAyOTg1LAogICAgICAgICAicmVmZXJlbmNlX3ZhbHVlIiA6IDEuNTY5NTY2NDA1NDAxMTgyNgogICAgICB9LAogICAgICB7CiAgICAgICAgICJmb3JjZV9jb25zdGFudCIgOiA2MCwKICAgICAgICAgImkiIDogMjk0NiwKICAgICAgICAgImoiIDogMjczNiwKICAgICAgICAgImsiIDogMzA3NSwKICAgICAgICAgInJlZmVyZW5jZV92YWx1ZSIgOiAxLjU5MDUwMzUwMTc3MTQzNDQKICAgICAgfSwKICAgICAgewogICAgICAgICAiZm9yY2VfY29uc3RhbnQiIDogNjAsCiAgICAgICAgICJpIiA6IDI5ODUsCiAgICAgICAgICJqIiA6IDI3MzYsCiAgICAgICAgICJrIiA6IDMwNzUsCiAgICAgICAgICJyZWZlcmVuY2VfdmFsdWUiIDogMS41NDkyNzA0OTkxNDYxNDY2CiAgICAgIH0sCiAgICAgIHsKICAgICAgICAgImZvcmNlX2NvbnN0YW50IiA6IDAsCiAgICAgICAgICJpIiA6IDI3MzYsCiAgICAgICAgICJqIiA6IDI5MTMsCiAgICAgICAgICJrIiA6IDI5MTQsCiAgICAgICAgICJyZWZlcmVuY2VfdmFsdWUiIDogMi40MDA5Njk2MTEyNjQ5MDE3CiAgICAgIH0sCiAgICAgIHsKICAgICAgICAgImZvcmNlX2NvbnN0YW50IiA6IDAsCiAgICAgICAgICJpIiA6IDI3MzYsCiAgICAgICAgICJqIiA6IDI5MTMsCiAgICAgICAgICJrIiA6IDI5MTUsCiAgICAgICAgICJyZWZlcmVuY2VfdmFsdWUiIDogMi4wMTMzMTY0NjQ1NDEzMjg2CiAgICAgIH0sCiAgICAgIHsKICAgICAgICAgImZvcmNlX2NvbnN0YW50IiA6IDAsCiAgICAgICAgICJpIiA6IDI3MzYsCiAgICAgICAgICJqIiA6IDI5NDYsCiAgICAgICAgICJrIiA6IDI5NDcsCiAgICAgICAgICJyZWZlcmVuY2VfdmFsdWUiIDogMi4zNzUyMDE5Nzc5ODUyODkzCiAgICAgIH0sCiAgICAgIHsKICAgICAgICAgImZvcmNlX2NvbnN0YW50IiA6IDAsCiAgICAgICAgICJpIiA6IDI3MzYsCiAgICAgICAgICJqIiA6IDI5NDYsCiAgICAgICAgICJrIiA6IDI5NDgsCiAgICAgICAgICJyZWZlcmVuY2VfdmFsdWUiIDogMi4wMjQwMjg4NDc4MzMyMzk2CiAgICAgIH0sCiAgICAgIHsKICAgICAgICAgImZvcmNlX2NvbnN0YW50IiA6IDAsCiAgICAgICAgICJpIiA6IDI3MzYsCiAgICAgICAgICJqIiA6IDI5ODUsCiAgICAgICAgICJrIiA6IDI5ODYsCiAgICAgICAgICJyZWZlcmVuY2VfdmFsdWUiIDogMi4yMzY3MTU3OTc5NTU1Mjk5CiAgICAgIH0sCiAgICAgIHsKICAgICAgICAgImZvcmNlX2NvbnN0YW50IiA6IDAsCiAgICAgICAgICJpIiA6IDI3MzYsCiAgICAgICAgICJqIiA6IDI5ODUsCiAgICAgICAgICJrIiA6IDI5ODcsCiAgICAgICAgICJyZWZlcmVuY2VfdmFsdWUiIDogMS43OTc3MDA2MzkzNDkwMTYKICAgICAgfSwKICAgICAgewogICAgICAgICAiZm9yY2VfY29uc3RhbnQiIDogMCwKICAgICAgICAgImkiIDogMjczNiwKICAgICAgICAgImoiIDogMzA3NSwKICAgICAgICAgImsiIDogMzA3NiwKICAgICAgICAgInJlZmVyZW5jZV92YWx1ZSIgOiAyLjE5OTE2MDEyNjk4NDc4NjIKICAgICAgfSwKICAgICAgewogICAgICAgICAiZm9yY2VfY29uc3RhbnQiIDogMCwKICAgICAgICAgImkiIDogMjczNiwKICAgICAgICAgImoiIDogMzA3NSwKICAgICAgICAgImsiIDogMzA3NywKICAgICAgICAgInJlZmVyZW5jZV92YWx1ZSIgOiAyLjE5NDk0NDc5ODA5MDgyNjMKICAgICAgfQogICBdLAogICAiYm9uZCIgOiBbCiAgICAgIHsKICAgICAgICAgImZvcmNlX2NvbnN0YW50IiA6IDMwMCwKICAgICAgICAgImkiIDogMjUwLAogICAgICAgICAiaiIgOiAyNzM2LAogICAgICAgICAicmVmZXJlbmNlX3ZhbHVlIiA6IDIuMTQ3MjE0NTIzMTI3NTc1OQogICAgICB9LAogICAgICB7CiAgICAgICAgICJmb3JjZV9jb25zdGFudCIgOiAzMDAsCiAgICAgICAgICJpIiA6IDI2OTgsCiAgICAgICAgICJqIiA6IDI3MzYsCiAgICAgICAgICJyZWZlcmVuY2VfdmFsdWUiIDogMi4wNzgzNDQ4NzY1OTA3NDcxCiAgICAgIH0sCiAgICAgIHsKICAgICAgICAgImZvcmNlX2NvbnN0YW50IiA6IDMwMCwKICAgICAgICAgImkiIDogMjczNiwKICAgICAgICAgImoiIDogMjkxMywKICAgICAgICAgInJlZmVyZW5jZV92YWx1ZSIgOiAyLjE2Mzg3NDM3NDM3MzE5NjMKICAgICAgfSwKICAgICAgewogICAgICAgICAiZm9yY2VfY29uc3RhbnQiIDogMzAwLAogICAgICAgICAiaSIgOiAyNzM2LAogICAgICAgICAiaiIgOiAyOTQ2LAogICAgICAgICAicmVmZXJlbmNlX3ZhbHVlIiA6IDIuMDk3MjQ3Mjk4Mzg3NTgwMwogICAgICB9LAogICAgICB7CiAgICAgICAgICJmb3JjZV9jb25zdGFudCIgOiAzMDAsCiAgICAgICAgICJpIiA6IDI3MzYsCiAgICAgICAgICJqIiA6IDI5ODUsCiAgICAgICAgICJyZWZlcmVuY2VfdmFsdWUiIDogMi4xNjA5MDU3ODMxMTk4OTUyCiAgICAgIH0sCiAgICAgIHsKICAgICAgICAgImZvcmNlX2NvbnN0YW50IiA6IDMwMCwKICAgICAgICAgImkiIDogMjczNiwKICAgICAgICAgImoiIDogMzA3NSwKICAgICAgICAgInJlZmVyZW5jZV92YWx1ZSIgOiAyLjEzNDA2OTY2MzY3OTQ2NjMKICAgICAgfQogICBdCn0K

> <s_m_entry_id>
28

> <s_m_entry_name>
8azy.1_ligand1

> <s_m_job_name>
proteinprep_3

> <s_m_subgroup_title>
proteinprep_3-out->8AZY - prepared_split_by_structure

> <s_m_subgroupid>
proteinprep_3-out->8AZY - prepared_split_by_structure

> <s_pdb_PDB_CLASSIFICATION>
ONCOPROTEIN

> <s_pdb_PDB_CRYST1_Space_Group>
P 21 21 2

> <s_pdb_PDB_DEPOSITION_DATE>
06-SEP-22

> <s_pdb_PDB_EXPDTA>
X-RAY DIFFRACTION

> <s_pdb_PDB_ID>
8AZY

> <s_pdb_PDB_REMARK_350_Biomolecule_1_Transform_1_Chains>
A

> <s_pdb_PDB_REMARK_350_Biomolecule_1_Transform_1_Matrix_1>
1.000000 0.000000 0.000000   0.000000;0.000000 1.000000 0.000000   0.000000;0.000000 0.000000 1.000000   0.000000

> <s_pdb_PDB_TITLE>
KRAS-G12D IN COMPLEX WITH BI-2865

> <s_pdb_PDB_format_version>
3.30

> <s_ppw_het_states>
eJztnGFP2zAQhv8K6meIfOfEdvdX0FRVrGyVOjq1MGlC/PfFZ5I3TltgFFhS7st0fuvkdX1+fMGB3U9mvxeb7XJ9M5t8OXOObHl+Vmvz1d0iKvcTqv+9vJ9c/Zhvvi+2sXFJtpqen5mv52d16AxCQsgILcISYYXQIfQIA0K4ebh5uHm4ebh5uHm4ebh5uHm4ebgFuAW4BbgFuAW4BbgFcavjyXrzrZ7ozvylqePU71GoTSgTuC/YVpBQppQwu2liORNcv4eH4EUIEIIIUwhiG6c9FzBS+UxmmJCYlJNcwNAllPzkQucelQgYuoSSsUwInR7yXWIiGTlN6SRkNiU1F1x7iXwmuc4FfBcJJe+EJZCynwtIQ6gw0rgSfi1u5qvbP/VSIC7Ic+02+bm4na9m6ZOlYHY/YZO6+GkVu7BH86Fub6/Wm0Ut3dytVnVzeXO9nm1vNx1lO1tvlt+X9T1r8Xq+2i7q616O8kWTce7EL4H5orO6lGal+ZPQbAqylp+EuShL26IcGwMEue2hZfmNQc4F1ydbQVaQ94Dc8pg/XWtFfhHIOabUJ1srsoI8eJC1Ir8XyFqRFeTjQO4+W//LgZdW5MOP1jnZWpEV5KGBrBX5vUDWiqwgv9lhlxbkl3Csh9afmGMqqHqOY+/jIkggc0HOTYdHslZkPbVWkkdA8gmeW1900jlslrUqH80yZQJ+yHlTlrngEGfhMMu2MD7Ir4WU6WncswPZPngaINmjK9LjIVurtJKt75r/M9k5t/qyWckeP9las/Xts5I9ErJP+/D7Y8jeeRrX19FK9rjI1pqt76eV7AGT/eoTtNHVbIPcDvsATUv20WA//5qLsQQOgE1YDofAdpV78k8mbeGMrRqwpRUGiPLoivRoUNYarSjr6fdHo7zzuK2H34ry6FDWqqyn3YryUFE+7fPtD0F55wFbj7cV5aGjrFVZz7MV5SGhfODY6/SK8nh+BVSr8tEoUya806spW7CJaXwK5WCMb1Cmwkypal5N2cIbNzyuR1ehx8O1lmjl+jmu40jiXfr/U29p2oVcmgqhQ+gRBoQtNyUZhISQEVqEcCO4EdwIbgQ3ghvDjeHGcGO4MdwYbgw3hhvDjds1VFq4WbhZuFm4WbhZuNm9W4JMe5rxR6ckcAmhkh4OgpMeGFzMTH5JElxPsB2XIDedNqv1UaCAHlMRpj2hc4+Y75SHXGAI1O+RBILA4mJ7wk4PblFMnWUBZQJ3BiZTaLkvYD6o6ru43tdPgjVwSULnEt9Lg1wt66e5RGYsri3GQk0Lk7Bcs4HJZ+LCmYDcctmzlS8u689iMadxdBZvc498JzJFvc0c+lPQSjoEjvM74bzls1ZoW6/el3aeN3RD2r8hGeRUNyTdkE5sQ+LCUXwIPLgh2aIMrtmP2obvNkLTePVmFMfEex6SbJCpy5nZ2VH3j/71g3l4+AuIi2i5

> <s_ppw_prepared_with_version>
2024-2

$$$$
