@<TRIPOS>MOLECULE
GDP
   40    42     1     0     0
SMALL
bcc


@<TRIPOS>ATOM
      1 P1           6.7230    30.6660    20.1090 p5         1 GDP       1.399900
      2 O1           6.9380    29.2210    19.6420 o          1 GDP      -0.913500
      3 O2           5.8320    31.4910    19.1650 o          1 GDP      -0.913500
      4 O3           6.2540    30.7550    21.5680 o          1 GDP      -0.913500
      5 O4           8.2840    31.3960    20.0350 os         1 GDP      -0.770800
      6 P2           8.8000    32.9900    19.7940 p5         1 GDP       1.567800
      7 O5           8.0990    33.8550    20.8140 o          1 GDP      -0.677000
      8 O6           8.7950    33.2820    18.3110 o          1 GDP      -0.677000
      9 O7          10.4370    32.7810    20.2630 os         1 GDP      -0.591200
     10 C1          10.6990    32.4260    21.6070 c3         1 GDP       0.183400
     11 C2          12.0630    32.9620    22.0560 c5         1 GDP       0.087100
     12 O8          13.0590    32.3170    21.2800 os         1 GDP      -0.427600
     13 C3          12.2990    34.4550    21.8110 c5         1 GDP       0.065100
     14 O9          13.1190    35.0350    22.8130 oh         1 GDP      -0.595800
     15 C4          12.8990    34.5050    20.4040 c5         1 GDP       0.084100
     16 O10         13.8030    35.5570    20.1300 oh         1 GDP      -0.618800
     17 C5          13.6640    33.1930    20.3840 c5         1 GDP       0.273800
     18 N1          13.8570    32.5390    19.0380 na         1 GDP      -0.199900
     19 C6          12.9300    32.1980    18.1200 cc         1 GDP       0.338400
     20 N2          13.4350    31.6400    17.0470 nd         1 GDP      -0.791000
     21 C7          14.7580    31.6860    17.2530 cd         1 GDP       0.266800
     22 C8          15.8310    31.2040    16.4080 c          1 GDP       0.615000
     23 O11         15.7550    30.5930    15.3490 o          1 GDP      -0.720500
     24 N3          17.0310    31.5040    16.9970 ns         1 GDP      -0.472400
     25 C9          17.2490    32.1260    18.2100 cd         1 GDP       0.462800
     26 N4          18.5210    32.3130    18.5600 nv         1 GDP      -0.854800
     27 N5          16.2900    32.5120    18.9790 nc         1 GDP      -0.567100
     28 C10         15.0560    32.2640    18.4540 cc         1 GDP      -0.060200
     29 H1          10.6980    31.3450    21.6750 h1         1 GDP       0.068200
     30 H2           9.9310    32.7950    22.2870 h1         1 GDP       0.068200
     31 H3          12.2120    32.6970    23.1030 h1         1 GDP       0.033700
     32 H4          11.3530    34.9930    21.8280 h1         1 GDP       0.166700
     33 H5          13.1770    35.9790    22.6420 ho         1 GDP       0.380000
     34 H6          12.1130    34.4720    19.6500 h1         1 GDP       0.111700
     35 H7          13.3030    36.3820    20.1430 ho         1 GDP       0.403000
     36 H8          14.6570    33.3490    20.8070 h2         1 GDP       0.037700
     37 H9          11.8810    32.3660    18.3080 h5         1 GDP       0.144100
     38 H10         17.8470    31.1890    16.4830 hn         1 GDP       0.303500
     39 H11         18.7500    32.7860    19.4250 hn         1 GDP       0.353800
     40 H12         19.2740    32.0110    17.9480 hn         1 GDP       0.353800
@<TRIPOS>BOND
     1     1     2 1   
     2     1     3 1   
     3     1     4 1   
     4     1     5 1   
     5     5     6 1   
     6     6     7 1   
     7     6     8 1   
     8     6     9 1   
     9     9    10 1   
    10    10    11 1   
    11    10    29 1   
    12    10    30 1   
    13    11    12 1   
    14    11    13 1   
    15    11    31 1   
    16    12    17 1   
    17    13    14 1   
    18    13    15 1   
    19    13    32 1   
    20    14    33 1   
    21    15    16 1   
    22    15    17 1   
    23    15    34 1   
    24    16    35 1   
    25    17    18 1   
    26    17    36 1   
    27    18    19 1   
    28    18    28 1   
    29    19    20 2   
    30    19    37 1   
    31    20    21 1   
    32    21    22 1   
    33    21    28 2   
    34    22    23 2   
    35    22    24 1   
    36    24    25 1   
    37    24    38 1   
    38    25    26 1   
    39    25    27 2   
    40    26    39 1   
    41    26    40 1   
    42    27    28 1   
@<TRIPOS>SUBSTRUCTURE
     1 GDP         1 TEMP              0 ****  ****    0 ROOT
